<?xmlversion="1.0" encoding="utf-8"?>
<!DOCTYPEpopulationSYSTEM"http://www.matsim.org/files/dtd/population_v6.dtd">
<population>
    <person id="1">
        <attributes>
            <attribute name="employed" class="java.lang.Boolean" >true</attribute>
        </attributes>
        <plan score="140.00982053869416" selected="yes">
            <activity type="home" link="1112" x="890.0" y="685.0" end_time="07:43:56" />
            <leg mode="car" dep_time="07:18:16" trav_time="00:01:40">
                <route type="links" start_link="1112" end_link="2223" trav_time="00:31:40" distance="14403.0">111212222223</route>
            </leg>
            <activity type="work" link="2223" x="1802.0" y="2782.0" end_time="17:09:02" />
            <leg mode="car" dep_time="17:43:36" trav_time="00:05:00">
                <route type="links" start_link="2223" end_link="1312" trav_time="00:27:32" distance="12573.0">222323131312</route>
            </leg>
            <activity type="shopping" link="1312" x="1802.0" y="2782.0" end_time="17:42:02" />
            <leg mode="car" dep_time="17:43:36" trav_time="00:05:00">
                <route type="links" start_link="1312" end_link="1112" trav_time="00:04:15" distance="3127.0">131212111112</route>
            </leg>
            <activity type="home" link="1112" x="890.0" y="685.0" />
        </plan>
    </person>
</population>